<?xml version="1.0" encoding="UTF-8"?>

<!-- generated on 2025-11-05 17:49:47.645368 by randomTrips.py v1_24_0+0000-b72eb3fabc8
<configuration>
    <net-file value="khalda.net.xml"/>
    <output-trip-file value="khalda.trips.xml"/>
    <fringe-factor value="10"/>
    <end value="600.0"/>
    <period value="1.0"/>
</configuration>
-->

<routes xmlns:xsi="http://www.w3.org/2001/XMLSchema-instance" xsi:noNamespaceSchemaLocation="http://sumo.dlr.de/xsd/routes_file.xsd">
    <trip id="0" depart="0.00" from="154658073" to="-154265185#0"/>
    <trip id="1" depart="1.00" from="-404242636#2" to="-404251437#2"/>
    <trip id="2" depart="2.00" from="154940107#3" to="154939969#0"/>
    <trip id="3" depart="3.00" from="687144768#0" to="-154286272"/>
    <trip id="4" depart="4.00" from="-688205566#1" to="-154266696"/>
    <trip id="5" depart="5.00" from="-154826775#1" to="154266733#1"/>
    <trip id="6" depart="6.00" from="-150892432#2" to="-30183037"/>
    <trip id="7" depart="7.00" from="154658099#1" to="154286261#0"/>
    <trip id="8" depart="8.00" from="-154826776#4" to="154658081#2"/>
    <trip id="9" depart="9.00" from="50436370#2" to="-138553877#0"/>
    <trip id="10" depart="10.00" from="50436368#10" to="154940107#5"/>
    <trip id="11" depart="11.00" from="-58326199#3" to="-154826765#0"/>
    <trip id="12" depart="12.00" from="688224380#2" to="-688415230#4"/>
    <trip id="13" depart="13.00" from="673225429#1" to="154658095"/>
    <trip id="14" depart="14.00" from="50436368#5" to="404251433#2"/>
    <trip id="15" depart="15.00" from="153914899#14" to="706925663#3"/>
    <trip id="16" depart="16.00" from="-683284825" to="154286277"/>
    <trip id="17" depart="17.00" from="674382481#3" to="154658071#4"/>
    <trip id="18" depart="18.00" from="154836590" to="-154266724#1"/>
    <trip id="19" depart="19.00" from="-154836604#0" to="-673225422"/>
    <trip id="20" depart="20.00" from="-154266733#1" to="-406699908"/>
    <trip id="21" depart="21.00" from="-154272148#0" to="-672153018"/>
    <trip id="22" depart="22.00" from="154658070#1" to="138553877#6"/>
    <trip id="23" depart="23.00" from="-674382481#1" to="-404242638#1"/>
    <trip id="24" depart="24.00" from="-404123053#1" to="688207462#2"/>
    <trip id="25" depart="25.00" from="154658097#0" to="154790274#1"/>
    <trip id="26" depart="26.00" from="-154658095" to="404251432#4"/>
    <trip id="27" depart="27.00" from="-154658088" to="149813586#5"/>
    <trip id="28" depart="28.00" from="723881190#1" to="154826762#0"/>
    <trip id="29" depart="29.00" from="154266693#2" to="154939995"/>
    <trip id="30" depart="30.00" from="673225418#1" to="50436373#3"/>
    <trip id="31" depart="31.00" from="-154836604#1" to="-154266704#0"/>
    <trip id="32" depart="32.00" from="-406703695" to="-50436991#4"/>
    <trip id="33" depart="33.00" from="-154826766#1" to="688224553#1"/>
    <trip id="34" depart="34.00" from="154790271#0" to="149867908#1"/>
    <trip id="35" depart="35.00" from="687379640#1" to="154266691#0"/>
    <trip id="36" depart="36.00" from="-394585502#4" to="-406703694#0"/>
    <trip id="37" depart="37.00" from="154266698#0" to="-50436371"/>
    <trip id="38" depart="38.00" from="154266730#1" to="687415472"/>
    <trip id="39" depart="39.00" from="-687163945#1" to="-404251432#1"/>
    <trip id="40" depart="40.00" from="794638294" to="154266741"/>
    <trip id="41" depart="41.00" from="-154272009#1" to="-154266725#2"/>
    <trip id="42" depart="42.00" from="-154286239" to="154826704"/>
    <trip id="43" depart="43.00" from="406703694#0" to="150892432#2"/>
    <trip id="44" depart="44.00" from="-154266712#1" to="149813586#5"/>
    <trip id="45" depart="45.00" from="794638294" to="154272148#2"/>
    <trip id="46" depart="46.00" from="689012493" to="686733960#3"/>
    <trip id="47" depart="47.00" from="-138553877#2" to="404244432#2"/>
    <trip id="48" depart="48.00" from="154826732" to="154286239"/>
    <trip id="49" depart="49.00" from="-404123053#1" to="154826762#1"/>
    <trip id="50" depart="50.00" from="-154286239" to="150892447#3"/>
    <trip id="51" depart="51.00" from="-711025223" to="688415230#5"/>
    <trip id="52" depart="52.00" from="684654981#0" to="-50436373#1"/>
    <trip id="53" depart="53.00" from="687376010#1" to="687156348#8-AddedOffRampEdge"/>
    <trip id="54" depart="54.00" from="-406699904#1" to="154826759"/>
    <trip id="55" depart="55.00" from="154286220#0" to="-154826756"/>
    <trip id="56" depart="56.00" from="404251430#7" to="154286239"/>
    <trip id="57" depart="57.00" from="406699908" to="154286213#3"/>
    <trip id="58" depart="58.00" from="-1354880164#0" to="-687611090"/>
    <trip id="59" depart="59.00" from="-138627612#1" to="688205565#1"/>
    <trip id="60" depart="60.00" from="684673565#0" to="683284825"/>
    <trip id="61" depart="61.00" from="-406699923" to="-154266743#0"/>
    <trip id="62" depart="62.00" from="684673564#0" to="688243864"/>
    <trip id="63" depart="63.00" from="-154271997#2" to="154266712#1"/>
    <trip id="64" depart="64.00" from="-154266725#0" to="406703695"/>
    <trip id="65" depart="65.00" from="404251434" to="-154790336#0"/>
    <trip id="66" depart="66.00" from="138627613#0" to="154286269#1"/>
    <trip id="67" depart="67.00" from="-394585502#4" to="687163945#1"/>
    <trip id="68" depart="68.00" from="-688207462#1" to="-404251430#0"/>
    <trip id="69" depart="69.00" from="153914975#0" to="404251433#2"/>
    <trip id="70" depart="70.00" from="-154826749" to="-685713755#2"/>
    <trip id="71" depart="71.00" from="794638294" to="154826771#1"/>
    <trip id="72" depart="72.00" from="-706925663#3" to="154272009#1"/>
    <trip id="73" depart="73.00" from="-154286269#1" to="-404254227#0"/>
    <trip id="74" depart="74.00" from="-51137412#1" to="154658081#2"/>
    <trip id="75" depart="75.00" from="-154836604#1" to="-404251433#0"/>
    <trip id="76" depart="76.00" from="-154266725#6" to="154826708"/>
    <trip id="77" depart="77.00" from="-154836604#1" to="687616071#4"/>
    <trip id="78" depart="78.00" from="674377801#3" to="-154286213#3"/>
    <trip id="79" depart="79.00" from="-154939969#0" to="154836612"/>
    <trip id="80" depart="80.00" from="-154826771#0" to="-154790347#4"/>
    <trip id="81" depart="81.00" from="688169643#1" to="154583940"/>
    <trip id="82" depart="82.00" from="138553887#4" to="51137410#1"/>
    <trip id="83" depart="83.00" from="50436368#6" to="-154940058#1"/>
    <trip id="84" depart="84.00" from="-154272046" to="150892446#2"/>
    <trip id="85" depart="85.00" from="-688207462#2" to="154266697#0"/>
    <trip id="86" depart="86.00" from="154940029#1" to="154836636#4"/>
    <trip id="87" depart="87.00" from="-687164923#1" to="-706925663#0"/>
    <trip id="88" depart="88.00" from="674382481#3" to="-406703702#1"/>
    <trip id="89" depart="89.00" from="-154826694#1" to="153915052#1"/>
    <trip id="90" depart="90.00" from="-688205566#1" to="-672153020#0"/>
    <trip id="91" depart="91.00" from="-154940029#1" to="688190869#0"/>
    <trip id="92" depart="92.00" from="-707330686" to="686733960#3"/>
    <trip id="93" depart="93.00" from="153915075#3" to="-154266728#0"/>
    <trip id="94" depart="94.00" from="797783923#2" to="684662843#0"/>
    <trip id="95" depart="95.00" from="688412994#1-AddedOnRampEdge" to="688199692"/>
    <trip id="96" depart="96.00" from="674256136#0" to="-154826777#0"/>
    <trip id="97" depart="97.00" from="149813603#0" to="-404251430#0"/>
    <trip id="98" depart="98.00" from="-687163945#1" to="-154266743#2"/>
    <trip id="99" depart="99.00" from="-683286713" to="708823484"/>
    <trip id="100" depart="100.00" from="-394585502#4" to="50437409"/>
    <trip id="101" depart="101.00" from="-711025223" to="150892432#2"/>
    <trip id="102" depart="102.00" from="688224384#1" to="711025223"/>
    <trip id="103" depart="103.00" from="154266692#2" to="404242636#2"/>
    <trip id="104" depart="104.00" from="-154658078" to="-674259698"/>
    <trip id="105" depart="105.00" from="688412994#1" to="154658076#3"/>
    <trip id="106" depart="106.00" from="153915030#0" to="406699920#3"/>
    <trip id="107" depart="107.00" from="-154266708" to="154658078"/>
    <trip id="108" depart="108.00" from="149867921#1" to="686130596"/>
    <trip id="109" depart="109.00" from="-154658081#2" to="699955761"/>
    <trip id="110" depart="110.00" from="-154266733#1" to="-154939976#0"/>
    <trip id="111" depart="111.00" from="154272045#2" to="154836640#4"/>
    <trip id="112" depart="112.00" from="-154836640#0" to="-154790192#1"/>
    <trip id="113" depart="113.00" from="686716753#2" to="-406703694#0"/>
    <trip id="114" depart="114.00" from="154272045#1" to="154826691#2"/>
    <trip id="115" depart="115.00" from="-688178023" to="154658078"/>
    <trip id="116" depart="116.00" from="150892435#5" to="688207462#1"/>
    <trip id="117" depart="117.00" from="-154826759" to="404242636#2"/>
    <trip id="118" depart="118.00" from="-154939969#2" to="149867908#2"/>
    <trip id="119" depart="119.00" from="154826691#0" to="-674382479"/>
    <trip id="120" depart="120.00" from="-406703695" to="406699923"/>
    <trip id="121" depart="121.00" from="-154266727#2" to="154265185#1"/>
    <trip id="122" depart="122.00" from="796739596" to="723881190#1"/>
    <trip id="123" depart="123.00" from="-154266728#1" to="-404251430#0"/>
    <trip id="124" depart="124.00" from="-394585502#4" to="688206298#1"/>
    <trip id="125" depart="125.00" from="684677984#1" to="687164923#1"/>
    <trip id="126" depart="126.00" from="-674382480" to="-154826766#4"/>
    <trip id="127" depart="127.00" from="672153020#2" to="394585502#1"/>
    <trip id="128" depart="128.00" from="154286220#0" to="708823490"/>
    <trip id="129" depart="129.00" from="154790192#1" to="-138553877#0"/>
    <trip id="130" depart="130.00" from="50437158" to="-674377801#2"/>
    <trip id="131" depart="131.00" from="154790336#3" to="688207463#2"/>
    <trip id="132" depart="132.00" from="-154286218#5" to="154286277"/>
    <trip id="133" depart="133.00" from="-404242636#1" to="154658097#0"/>
    <trip id="134" depart="134.00" from="154836640#4" to="-404242624#0"/>
    <trip id="135" depart="135.00" from="154584006#0" to="-50436373#2"/>
    <trip id="136" depart="136.00" from="149813603#0" to="687616071#4"/>
    <trip id="137" depart="137.00" from="673225427#0" to="-154286283#0"/>
    <trip id="138" depart="138.00" from="-688207462#2" to="-672153015"/>
    <trip id="139" depart="139.00" from="-1370762617" to="50436368#2"/>
    <trip id="140" depart="140.00" from="154658071#4" to="-50436370#0"/>
    <trip id="141" depart="141.00" from="326403705#5" to="154286277"/>
    <trip id="142" depart="142.00" from="-688415230#2" to="-138553877#7"/>
    <trip id="143" depart="143.00" from="-154266730#2" to="687212929"/>
    <trip id="144" depart="144.00" from="687164920" to="154286263#0"/>
    <trip id="145" depart="145.00" from="672153022#0" to="154658077"/>
    <trip id="146" depart="146.00" from="-154658076#1" to="-154790304#0"/>
    <trip id="147" depart="147.00" from="-406699923" to="687600883"/>
    <trip id="148" depart="148.00" from="406703704#0" to="686733960#3"/>
    <trip id="149" depart="149.00" from="687156348#3" to="-404244432#1"/>
    <trip id="150" depart="150.00" from="-154940029#0" to="-154584006#2"/>
    <trip id="151" depart="151.00" from="406699912#0" to="687212931#3"/>
    <trip id="152" depart="152.00" from="-687212931#2" to="154826691#4"/>
    <trip id="153" depart="153.00" from="-154658078" to="688205565#3"/>
    <trip id="154" depart="154.00" from="50436373#2" to="687212915"/>
    <trip id="155" depart="155.00" from="-1442636431#1" to="404254227#5"/>
    <trip id="156" depart="156.00" from="-50436373#8" to="688205567#1"/>
    <trip id="157" depart="157.00" from="407586500#1" to="687144766"/>
    <trip id="158" depart="158.00" from="50436373#2" to="-50436991#1"/>
    <trip id="159" depart="159.00" from="406699922" to="-154658073"/>
    <trip id="160" depart="160.00" from="684018798" to="686716753#4"/>
    <trip id="161" depart="161.00" from="1354880164#1" to="-674404989#1"/>
    <trip id="162" depart="162.00" from="406703704#0" to="-406699901#2"/>
    <trip id="163" depart="163.00" from="-1442636430" to="-154940093"/>
    <trip id="164" depart="164.00" from="-50436370#0" to="687144768#0"/>
    <trip id="165" depart="165.00" from="688241731#2" to="-672153021#0"/>
    <trip id="166" depart="166.00" from="154658075" to="149867946#2"/>
    <trip id="167" depart="167.00" from="704945551#1" to="154286226"/>
    <trip id="168" depart="168.00" from="688178268" to="-154658097#2"/>
    <trip id="169" depart="169.00" from="688415230#3" to="-154836640#3"/>
    <trip id="170" depart="170.00" from="688239224" to="-50436373#7"/>
    <trip id="171" depart="171.00" from="-154286226" to="150892447#3"/>
    <trip id="172" depart="172.00" from="154940027" to="-686690501"/>
    <trip id="173" depart="173.00" from="154286215#5" to="154271997#0"/>
    <trip id="174" depart="174.00" from="-686130596" to="154658071#2"/>
    <trip id="175" depart="175.00" from="-154940097#2" to="404123053#0"/>
    <trip id="176" depart="176.00" from="-1359250871" to="688199689#1"/>
    <trip id="177" depart="177.00" from="153914899#9" to="404242638#0"/>
    <trip id="178" depart="178.00" from="394585497#0" to="154836625"/>
    <trip id="179" depart="179.00" from="-674041498" to="-154286213#0"/>
    <trip id="180" depart="180.00" from="154790336#5" to="-687618403#0"/>
    <trip id="181" depart="181.00" from="-406703692" to="685713747"/>
    <trip id="182" depart="182.00" from="154836644#0" to="-674382480"/>
    <trip id="183" depart="183.00" from="-406699926#1" to="149966685#6"/>
    <trip id="184" depart="184.00" from="-687164923#1" to="-674259698"/>
    <trip id="185" depart="185.00" from="-154286282" to="150892432#2"/>
    <trip id="186" depart="186.00" from="688190869#0" to="154939969#2"/>
    <trip id="187" depart="187.00" from="687164917" to="154790347#1"/>
    <trip id="188" depart="188.00" from="-406699912#2" to="154286269#1"/>
    <trip id="189" depart="189.00" from="-1354880164#0" to="-673225415"/>
    <trip id="190" depart="190.00" from="-688415230#5" to="154658077"/>
    <trip id="191" depart="191.00" from="154790271#0" to="154266694"/>
    <trip id="192" depart="192.00" from="-707330686" to="-404251430#0"/>
    <trip id="193" depart="193.00" from="138553887#5" to="687600883"/>
    <trip id="194" depart="194.00" from="406703704#0" to="-154836595"/>
    <trip id="195" depart="195.00" from="-154271997#1" to="154272009#1"/>
    <trip id="196" depart="196.00" from="154583858" to="-688207463#2"/>
    <trip id="197" depart="197.00" from="50437161#2" to="406699923"/>
    <trip id="198" depart="198.00" from="154826691#3" to="-404254227#0"/>
    <trip id="199" depart="199.00" from="-154826742#0" to="-153914975#0"/>
    <trip id="200" depart="200.00" from="-154939979#1" to="154266707"/>
    <trip id="201" depart="201.00" from="674256136#0" to="-154286215#5"/>
    <trip id="202" depart="202.00" from="-687681054" to="154826708"/>
    <trip id="203" depart="203.00" from="-154826708" to="154940107#0"/>
    <trip id="204" depart="204.00" from="149867892" to="-406703690"/>
    <trip id="205" depart="205.00" from="154790271#0" to="-138553877#0"/>
    <trip id="206" depart="206.00" from="404242635#3" to="50436368#0"/>
    <trip id="207" depart="207.00" from="-154286218#4" to="150892435#5"/>
    <trip id="208" depart="208.00" from="-154790274#0" to="699951285#2"/>
    <trip id="209" depart="209.00" from="150892427#0" to="-154266727#3"/>
    <trip id="210" depart="210.00" from="-154940027" to="685713748"/>
    <trip id="211" depart="211.00" from="-711025223" to="672153489#1"/>
    <trip id="212" depart="212.00" from="154826689#0" to="708837645"/>
    <trip id="213" depart="213.00" from="154272073" to="688415230#3"/>
    <trip id="214" depart="214.00" from="686733960#2" to="154790336#0"/>
    <trip id="215" depart="215.00" from="154836644#0" to="154266733#1"/>
    <trip id="216" depart="216.00" from="687156348#0" to="406699906"/>
    <trip id="217" depart="217.00" from="138627613#0" to="-50436368#2"/>
    <trip id="218" depart="218.00" from="-154939999" to="154826759"/>
    <trip id="219" depart="219.00" from="404251434" to="154272045#2"/>
    <trip id="220" depart="220.00" from="154286283#2" to="-58326199#4"/>
    <trip id="221" depart="221.00" from="-154266733#1" to="-673225414#0"/>
    <trip id="222" depart="222.00" from="-404242635#3" to="-687164923#0"/>
    <trip id="223" depart="223.00" from="153914989" to="-154826691#2"/>
    <trip id="224" depart="224.00" from="-154836613#0" to="154940070#0"/>
    <trip id="225" depart="225.00" from="154836599" to="-154272132"/>
    <trip id="226" depart="226.00" from="-687379640#1" to="154286253"/>
    <trip id="227" depart="227.00" from="-687681054" to="-404242633#1"/>
    <trip id="228" depart="228.00" from="-688190869#1" to="687616071#3"/>
    <trip id="229" depart="229.00" from="154266729" to="154940097#2"/>
    <trip id="230" depart="230.00" from="674259698" to="406703709#2"/>
    <trip id="231" depart="231.00" from="-685517662#1" to="-138553877#0"/>
    <trip id="232" depart="232.00" from="-672153489#1" to="406699926#2"/>
    <trip id="233" depart="233.00" from="674259697" to="688415230#5"/>
    <trip id="234" depart="234.00" from="-688178023" to="406699920#1"/>
    <trip id="235" depart="235.00" from="-154826776#4" to="-404251432#1"/>
    <trip id="236" depart="236.00" from="-706925663#3" to="-154266693#1"/>
    <trip id="237" depart="237.00" from="-51137411#1" to="154939976#1"/>
    <trip id="238" depart="238.00" from="-687164923#1" to="-154826777#0"/>
    <trip id="239" depart="239.00" from="138553877#0" to="-154790304#0"/>
    <trip id="240" depart="240.00" from="154286272" to="-154266691#5"/>
    <trip id="241" depart="241.00" from="-150892432#2" to="154826762#1"/>
    <trip id="242" depart="242.00" from="-154266702" to="149813586#4"/>
    <trip id="243" depart="243.00" from="-154826766#3" to="-687616072#1"/>
    <trip id="244" depart="244.00" from="404251430#3" to="149813586#5"/>
    <trip id="245" depart="245.00" from="404242638#0" to="683286713"/>
    <trip id="246" depart="246.00" from="-154940060#1" to="-154286224"/>
    <trip id="247" depart="247.00" from="-138627612#1" to="154286239"/>
    <trip id="248" depart="248.00" from="797783923#4" to="-797783923#1"/>
    <trip id="249" depart="249.00" from="154790170#0" to="50436991#3"/>
    <trip id="250" depart="250.00" from="154790170#0" to="406703690"/>
    <trip id="251" depart="251.00" from="688205686#1" to="-326403705#2"/>
    <trip id="252" depart="252.00" from="-138627612#1" to="-154826756"/>
    <trip id="253" depart="253.00" from="-154286277" to="154836613#1"/>
    <trip id="254" depart="254.00" from="154266704#1" to="-404251431#0"/>
    <trip id="255" depart="255.00" from="154826777#0" to="407586500#1"/>
    <trip id="256" depart="256.00" from="-154658094#1" to="154790192#0"/>
    <trip id="257" depart="257.00" from="404242631#0" to="-154658097#0"/>
    <trip id="258" depart="258.00" from="51137410#0" to="704941094#1"/>
    <trip id="259" depart="259.00" from="-154286221#2" to="-154266691#0"/>
    <trip id="260" depart="260.00" from="-406703692" to="154939969#2"/>
    <trip id="261" depart="261.00" from="688224384#1-AddedOnRampEdge" to="149867908#3-AddedOnRampEdge"/>
    <trip id="262" depart="262.00" from="154836636#1" to="-154286220#0"/>
    <trip id="263" depart="263.00" from="154826765#2" to="154826704"/>
    <trip id="264" depart="264.00" from="-154286213#0" to="50436368#7"/>
    <trip id="265" depart="265.00" from="674256136#0" to="154658094#1"/>
    <trip id="266" depart="266.00" from="-154286269#1" to="707818008"/>
    <trip id="267" depart="267.00" from="406699912#0" to="-794638294"/>
    <trip id="268" depart="268.00" from="149867950#3" to="-708859188"/>
    <trip id="269" depart="269.00" from="674256136#0" to="674382480"/>
    <trip id="270" depart="270.00" from="-154286218#1" to="699955761"/>
    <trip id="271" depart="271.00" from="154658070#1" to="674420431#1"/>
    <trip id="272" depart="272.00" from="154836602" to="150892447#3"/>
    <trip id="273" depart="273.00" from="154940093" to="704941095#1"/>
    <trip id="274" depart="274.00" from="-404242633#0" to="673225418#1"/>
    <trip id="275" depart="275.00" from="153914899#7" to="154266712#1"/>
    <trip id="276" depart="276.00" from="-706925663#3" to="404251436#1"/>
    <trip id="277" depart="277.00" from="-404242629#0" to="686130596"/>
    <trip id="278" depart="278.00" from="685517662#0" to="-406703690"/>
    <trip id="279" depart="279.00" from="138553877#0" to="154790274#1"/>
    <trip id="280" depart="280.00" from="-684653258#0" to="-154266693#0"/>
    <trip id="281" depart="281.00" from="674256136#0" to="-154836644#0"/>
    <trip id="282" depart="282.00" from="-154826766#4" to="672153017#1"/>
    <trip id="283" depart="283.00" from="-58326199#3" to="687164923#1"/>
    <trip id="284" depart="284.00" from="154826777#0" to="-672153013"/>
    <trip id="285" depart="285.00" from="-138366884#2" to="688412994#0"/>
    <trip id="286" depart="286.00" from="-154271997#2" to="404244432#1"/>
    <trip id="287" depart="287.00" from="149813603#0" to="406703694#1"/>
    <trip id="288" depart="288.00" from="154826765#2" to="154826766#4"/>
    <trip id="289" depart="289.00" from="149813603#4-AddedOnRampEdge" to="58326199#7"/>
    <trip id="290" depart="290.00" from="-154272045#0" to="-404251436#1"/>
    <trip id="291" depart="291.00" from="154826766#3" to="-674404991"/>
    <trip id="292" depart="292.00" from="154266727#0" to="154266704#0"/>
    <trip id="293" depart="293.00" from="404242624#0" to="-688178268"/>
    <trip id="294" depart="294.00" from="154836583#0" to="-51137411#4"/>
    <trip id="295" depart="295.00" from="-154940058#2" to="-154790271#0"/>
    <trip id="296" depart="296.00" from="-154826704" to="-154790192#0"/>
    <trip id="297" depart="297.00" from="153914899#13" to="406703702#1"/>
    <trip id="298" depart="298.00" from="-154826689#3" to="-404251430#5"/>
    <trip id="299" depart="299.00" from="149813589#1" to="404251431#1"/>
    <trip id="300" depart="300.00" from="699951285#6" to="154272046"/>
    <trip id="301" depart="301.00" from="-404251432#1" to="-154583778#2"/>
    <trip id="302" depart="302.00" from="-154826704" to="-406699901#1"/>
    <trip id="303" depart="303.00" from="153914899#0" to="-58326199#4"/>
    <trip id="304" depart="304.00" from="699951283#2" to="154286277"/>
    <trip id="305" depart="305.00" from="154826776#3" to="-154790304#0"/>
    <trip id="306" depart="306.00" from="683135619" to="154266722#2"/>
    <trip id="307" depart="307.00" from="684018798" to="154583940"/>
    <trip id="308" depart="308.00" from="138553877#6" to="153914899#7"/>
    <trip id="309" depart="309.00" from="-154826689#1" to="-154266728#2"/>
    <trip id="310" depart="310.00" from="688193022#0" to="154266707"/>
    <trip id="311" depart="311.00" from="51137412#0" to="149867950#1"/>
    <trip id="312" depart="312.00" from="-154266728#3" to="154826708"/>
    <trip id="313" depart="313.00" from="-154266707" to="-154826745#1"/>
    <trip id="314" depart="314.00" from="154266700#1" to="-674404986#2"/>
    <trip id="315" depart="315.00" from="724375658" to="-154790170#0"/>
    <trip id="316" depart="316.00" from="404251432#1" to="154658099#1"/>
    <trip id="317" depart="317.00" from="406703694#0" to="-404254227#3"/>
    <trip id="318" depart="318.00" from="150892435#5" to="153915052#1"/>
    <trip id="319" depart="319.00" from="-707330686" to="686733960#1"/>
    <trip id="320" depart="320.00" from="724088109" to="-674404989#1"/>
    <trip id="321" depart="321.00" from="154286272" to="154790274#1"/>
    <trip id="322" depart="322.00" from="30183037" to="688243865"/>
    <trip id="323" depart="323.00" from="-154826762#1" to="-404251429#0"/>
    <trip id="324" depart="324.00" from="154790304#0" to="-154826766#2"/>
    <trip id="325" depart="325.00" from="-154790170#1" to="-154286218#6"/>
    <trip id="326" depart="326.00" from="-1370762617" to="153915052#1"/>
    <trip id="327" depart="327.00" from="154272039" to="-673225428"/>
    <trip id="328" depart="328.00" from="-154836613#0" to="394585502#4"/>
    <trip id="329" depart="329.00" from="154836583#0" to="153915075#6"/>
    <trip id="330" depart="330.00" from="154826756" to="688193022#0"/>
    <trip id="331" depart="331.00" from="406699925" to="154826704"/>
    <trip id="332" depart="332.00" from="154790304#0" to="688207461#1"/>
    <trip id="333" depart="333.00" from="-688207462#2" to="154286260"/>
    <trip id="334" depart="334.00" from="154658096#1" to="687625498"/>
    <trip id="335" depart="335.00" from="672153002#4" to="-154286215#1"/>
    <trip id="336" depart="336.00" from="-154658094#1" to="-674420432"/>
    <trip id="337" depart="337.00" from="404242633#0" to="154583845"/>
    <trip id="338" depart="338.00" from="-404251436#1" to="-154790271#2"/>
    <trip id="339" depart="339.00" from="154826756" to="30183036#0"/>
    <trip id="340" depart="340.00" from="688199689#1" to="154266729"/>
    <trip id="341" depart="341.00" from="149867892" to="-154286224"/>
    <trip id="342" depart="342.00" from="-154266691#5" to="150892447#0"/>
    <trip id="343" depart="343.00" from="-406708203" to="-406703704#0"/>
    <trip id="344" depart="344.00" from="-154272009#1" to="699955761"/>
    <trip id="345" depart="345.00" from="672153022#0" to="154658070#0"/>
    <trip id="346" depart="346.00" from="688207461#1" to="797783923#3"/>
    <trip id="347" depart="347.00" from="154826691#2" to="-51137411#0"/>
    <trip id="348" depart="348.00" from="-154266691#6" to="406703692"/>
    <trip id="349" depart="349.00" from="138553884#1" to="154826771#1"/>
    <trip id="350" depart="350.00" from="687381554#0" to="-154836644#0"/>
    <trip id="351" depart="351.00" from="154266730#3" to="154826748#1"/>
    <trip id="352" depart="352.00" from="-672153020#0" to="-688205566#1"/>
    <trip id="353" depart="353.00" from="154826689#0" to="686716753#4"/>
    <trip id="354" depart="354.00" from="-50436373#1" to="154940064"/>
    <trip id="355" depart="355.00" from="-404251436#0" to="688241728"/>
    <trip id="356" depart="356.00" from="50436903" to="154286270"/>
    <trip id="357" depart="357.00" from="-711025223" to="-686690501"/>
    <trip id="358" depart="358.00" from="-50435962#2" to="706925663#0"/>
    <trip id="359" depart="359.00" from="-687164923#1" to="154271997#2"/>
    <trip id="360" depart="360.00" from="708837645" to="154836583#2"/>
    <trip id="361" depart="361.00" from="153915030#0" to="149966717#1"/>
    <trip id="362" depart="362.00" from="-154826691#4" to="138366884#3"/>
    <trip id="363" depart="363.00" from="404251429#0" to="154826704"/>
    <trip id="364" depart="364.00" from="404251430#0" to="-404242624#0"/>
    <trip id="365" depart="365.00" from="153915075#0" to="688202062#2"/>
    <trip id="366" depart="366.00" from="-706925663#3" to="154940107#6"/>
    <trip id="367" depart="367.00" from="-154286269#1" to="706925663#3"/>
    <trip id="368" depart="368.00" from="154286220#0" to="-406699917"/>
    <trip id="369" depart="369.00" from="-154658081#2" to="154286275#0"/>
    <trip id="370" depart="370.00" from="154265185#0" to="-154286283#3"/>
    <trip id="371" depart="371.00" from="724375658" to="687681054"/>
    <trip id="372" depart="372.00" from="1359250872" to="-154790170#0"/>
    <trip id="373" depart="373.00" from="672153014" to="154266727#2"/>
    <trip id="374" depart="374.00" from="154836640#0" to="154266739"/>
    <trip id="375" depart="375.00" from="-404242636#2" to="684654981#0"/>
    <trip id="376" depart="376.00" from="704941095#5" to="-406699928"/>
    <trip id="377" depart="377.00" from="153915075#6" to="149813589#2-AddedOnRampEdge"/>
    <trip id="378" depart="378.00" from="687415473#1" to="154266737#0"/>
    <trip id="379" depart="379.00" from="684673566#0" to="687144766"/>
    <trip id="380" depart="380.00" from="-404242638#1" to="58326199#3"/>
    <trip id="381" depart="381.00" from="-687681054" to="688207461#2"/>
    <trip id="382" depart="382.00" from="149867951" to="674366453"/>
    <trip id="383" depart="383.00" from="-404251432#1" to="-674377801#0"/>
    <trip id="384" depart="384.00" from="154266733#0" to="797783923#1"/>
    <trip id="385" depart="385.00" from="149813603#2-AddedOffRampEdge" to="-154826745#0"/>
    <trip id="386" depart="386.00" from="153914899#9" to="-724375658"/>
    <trip id="387" depart="387.00" from="154265147" to="154286253"/>
    <trip id="388" depart="388.00" from="-711025223" to="-687379640#0"/>
    <trip id="389" depart="389.00" from="-154826691#4" to="154940107#3"/>
    <trip id="390" depart="390.00" from="154266714#0" to="-406699908"/>
    <trip id="391" depart="391.00" from="406699905#4" to="-154266720#0"/>
    <trip id="392" depart="392.00" from="404123053#1" to="394585502#4"/>
    <trip id="393" depart="393.00" from="154790336#3" to="674377801#0"/>
    <trip id="394" depart="394.00" from="704945551#0" to="154266725#1"/>
    <trip id="395" depart="395.00" from="-154265185#1" to="154266732#0"/>
    <trip id="396" depart="396.00" from="154266742" to="687156348#7"/>
    <trip id="397" depart="397.00" from="150892443#4" to="154265185#1"/>
    <trip id="398" depart="398.00" from="154836644#3" to="149966699"/>
    <trip id="399" depart="399.00" from="154790271#0" to="-154826756"/>
    <trip id="400" depart="400.00" from="138553877#6" to="706692658"/>
    <trip id="401" depart="401.00" from="-57723853#0" to="154940060#0"/>
    <trip id="402" depart="402.00" from="154658099#1" to="686130596"/>
    <trip id="403" depart="403.00" from="674256136#3-AddedOffRampEdge" to="686716753#4"/>
    <trip id="404" depart="404.00" from="-685517662#1" to="-686716753#3"/>
    <trip id="405" depart="405.00" from="154836644#0" to="406703695"/>
    <trip id="406" depart="406.00" from="684018798" to="-154266713#0"/>