<?xml version="1.0" encoding="UTF-8"?>

<!-- generated on 2025-11-05 17:49:48.206634 by randomTrips.py v1_24_0+0000-b72eb3fabc8
<configuration>
    <net-file value="khalda.net.xml"/>
    <output-trip-file value="khalda.trips.xml"/>
    <fringe-factor value="10"/>
    <end value="600.0"/>
    <period value="1.0"/>
</configuration>
-->

<!-- generated on 2025-11-05 17:49:47 by Eclipse SUMO duarouter Version 1.24.0
<duarouterConfiguration xmlns:xsi="http://www.w3.org/2001/XMLSchema-instance" xsi:noNamespaceSchemaLocation="http://sumo.dlr.de/xsd/duarouterConfiguration.xsd">

    <input>
        <net-file value="khalda.net.xml"/>
        <route-files value="khalda.trips.xml"/>
    </input>

    <output>
        <output-file value="routes.rou.xml"/>
        <alternatives-output value="NUL"/>
    </output>

    <time>
        <begin value="0"/>
        <end value="600.0"/>
    </time>

    <report>
        <no-warnings value="true"/>
        <ignore-errors value="true"/>
        <no-step-log value="true"/>
    </report>

</duarouterConfiguration>
-->

<routes xmlns:xsi="http://www.w3.org/2001/XMLSchema-instance" xsi:noNamespaceSchemaLocation="http://sumo.dlr.de/xsd/routes_file.xsd">
    <vehicle id="0" depart="0.00">
        <route edges="154658073 704941095#5 704941090 704941092#1 704941092#2 704941092#3 704941094#0 704941094#1 326403705#1 326403705#2 326403705#4 326403705#5 326403705#6 50436990 688169646 688169645 688169644#0 688169643#0 688169643#1-AddedOnRampEdge 688169643#1 688170737#0 688170737#1 688170737#2 688412994#0 688412994#1-AddedOnRampEdge 688412994#1 688412994#2 688170736#0 687616071#1 687616071#2 687616071#3 687616071#4 138553869#1 138553869#2 688205564#3 407586500#0 407586500#1 154265185#0 -154265185#0"/>
    </vehicle>
    <vehicle id="1" depart="1.00">
        <route edges="-404242636#2 154266690 674420436#0 674420436#1 674420432 404242624#0 153914899#2 153914899#3 404242634 154266700#0 154266700#1 687616071#4 -404251437#2"/>
    </vehicle>
    <vehicle id="2" depart="2.00">
        <route edges="154940107#3 -154940107#3 -154940107#2 -154940107#1 -154940107#0 688205686#0 687674412 688241731#2 -688207463#2 666802011 688206298#0 688206298#1 -154940097#2 -154940097#1 154939969#0"/>
    </vehicle>
    <vehicle id="3" depart="3.00">
        <route edges="687144768#0 687144768#1 687144766 687144785#3 687144785#4 687144785#5 687144785#6 687144785#7 687144785#0 687144785#1 687144770 -687144768#1 -687144768#0 154658099#0 154658099#1 687238550 688199698 688169646 688169645 688169644#0 687375092#1 687375092#2 154286273 674382481#0 674382481#1 674382481#2 674382481#3 -154286272"/>
    </vehicle>
    <vehicle id="4" depart="4.00">
        <route edges="-688205566#1 -154266723#1 -154266723#0 -153914899#7 -153914899#6 -153914899#5 -153914899#4 -153914899#3 -404242633#1 -404242633#0 -154266725#6 -154266725#5 797783923#4 -688190869#1 -688190869#0 154266722#0 688193024#1 -154266728#3 -154266728#2 -154266696"/>
    </vehicle>
    <vehicle id="5" depart="5.00">
        <route edges="-154826775#1 -154826775#0 -154826776#3 -154826776#2 -154826776#1 -154826776#0 154826689#3 154826689#4 154826706 688412994#1-AddedOnRampEdge 688412994#1 688412994#2 688170736#0 699951283#0 699951283#1 699951283#2 699951282 149867946#0 149867946#1 149867946#2-AddedOnRampEdge 149867946#2 149867946#3 688224552#0 688224553#1 688224553#2 688224553#2-AddedOffRampEdge 688224553#3 688224553#4-AddedOnRampEdge 688224553#4 688224553#4-AddedOffRampEdge 149867911#0 149867911#1 149867911#2 149867911#3 684673565#0 404196643 149867921#1 154266721 -154266693#1 -154266693#0 154266733#1"/>
    </vehicle>
    <vehicle id="6" depart="6.00">
        <route edges="-150892432#2 -150892432#0 -58326199#3 -58326199#2 -58326199#1 687409196 687407177#3 687407177#4 687407177#5 687410845 149966717#2 149966717#3 150892439 150892443#1 150892443#2 150892443#3 150892443#3-AddedOffRampEdge 150892443#4 684677984#1 687238550 688199698 688169646 688169645 688169644#0 688169643#0 688169643#1-AddedOnRampEdge 688169643#1 688170737#0 688170737#1 688170737#2 688412994#0 688412994#1-AddedOnRampEdge 688412994#1 688412994#2 688170736#0 699951283#0 699951283#1 699951283#2 154836637 673225441 406703709#0 -154836595 -154836640#3 -406703694#1 -30183037"/>
    </vehicle>
    <vehicle id="7" depart="7.00">
        <route edges="154658099#1 687238550 688199698 688169646 688169645 688169644#0 687375092#1 687375092#2 -687379640#1 -687379640#0 687381554#0 687381552 -154286292#4 -154286292#3 -154286292#2 -154286292#1 -154286292#0 687604976#1 154286261#0"/>
    </vehicle>
    <vehicle id="8" depart="8.00">
        <route edges="-154826776#4 154826775#0 154826775#1 -154826742#1 -154826742#0 -688415230#0 687415473#1 687415473#2 688202063#0 688202063#1 688202063#2 -154826694#4 154826715 154658071#3 -154658097#3 -154658097#2 406699920#0 406699920#1 -50436991#4 154658081#0 154658081#2"/>
    </vehicle>
    <vehicle id="9" depart="9.00">
        <route edges="50436370#2 -50436373#7 -50435962#0 688243864 687144785#5 687144785#6 687144785#7 687144785#0 687144785#1 687144770 -687144768#1 -687144768#0 154658099#0 154658099#1 687238550 688199698 688169646 688169645 688169644#0 688169643#0 688169643#1-AddedOnRampEdge 688169643#1 688170737#0 688170737#1 688170737#2 688412994#0 688412994#1-AddedOnRampEdge 688412994#1 688412994#2 688170736#0 699951283#0 699951283#1 699951283#2 699951282 149867946#0 149867946#1 149867946#2-AddedOnRampEdge 149867946#2 149867946#3 688224552#0 688224553#1 688224553#2 688224553#2-AddedOffRampEdge 688224553#3 688224553#4-AddedOnRampEdge 688224553#4 688224553#4-AddedOffRampEdge 149867911#0 149867911#1 149867911#2 149867911#3 684673565#0 404196643 149867921#1 149867921#2 688224384#1-AddedOnRampEdge 688224384#1 688224384#1-AddedOffRampEdge 724088109 -138553877#7 -138553877#6 -138553877#5 -138553877#4 -138553877#3 -138553877#2 -138553877#0"/>
    </vehicle>
    <vehicle id="10" depart="10.00">
        <route edges="50436368#10 50436902#1 687144768#0 687144768#1 687144766 687144785#3 687144785#4 687144785#5 687144785#6 687144785#7 687144785#0 687144785#1 687144770 -687144768#1 -687144768#0 154658099#0 154658099#1 687238550 688199698 688169646 688169645 688169644#0 688169643#0 688169643#1-AddedOnRampEdge 688169643#1 688170737#0 688170737#1 688170737#2 688412994#0 688412994#1-AddedOnRampEdge 688412994#1 688412994#2 688170736#0 699951283#0 699951283#1 699951283#2 699951282 149867946#0 149867946#1 149867946#2-AddedOnRampEdge 149867946#2 149867946#3 688224552#0 688224553#1 688224553#2 688224553#2-AddedOffRampEdge 724399138 688207463#0 688207463#2 688207461#0 688207461#1 688207461#2 688241728 688205684#0 688205684#1 154940107#0 154940107#1 154940107#2 154940107#3 154940107#4 154940107#5"/>
    </vehicle>
    <vehicle id="11" depart="11.00">
        <route edges="-58326199#3 -58326199#2 -58326199#1 687409196 687407177#3 687407177#4 687407177#5 687410845 149966717#2 149966717#3 150892439 150892443#1 150892443#2 150892443#3 150892443#3-AddedOffRampEdge 150892443#4 684677984#1 687238550 154558139 -326403705#6 -326403705#5 -326403705#4 -154658083 -687212931#0 687212917 687212930#6 687212930#7 687212930#1 687212923 -154658071#5 154826765#0 -154826765#0"/>
    </vehicle>
    <vehicle id="12" depart="12.00">
        <route edges="688224380#2 149867950#1 149867950#2 149867950#3 149867950#4 149867950#5 149867950#6 149867950#7 699951284 699951281#0 699951281#1 699951280#0 699951280#1 699951285#2 699951285#3-AddedOnRampEdge 699951285#3 699951285#4 699951285#5 699951285#6 688412992 688183264#0 688183264#1 688183264#2 688171462#1 688171462#2 687376010#0 687376010#1 687376010#2 687376010#3 687376010#4 154658098#4 154658098#5 154658098#6 154658098#0 154658087#0 687415472 687415471#0 687415471#1 687415471#2 687415471#3 687415471#4 688415230#0 688415230#2 688415230#3 688415230#4 -688415230#4"/>
    </vehicle>
    <vehicle id="13" depart="13.00">
        <route edges="673225429#1 404251434 687616070#3 687617844 699951285#3-AddedOnRampEdge 699951285#3 699951285#4 699951285#5 699951285#6 688412992 688183264#0 688183264#1 688183264#2 688171462#1 688171462#2 687376010#0 687376010#1 688199692 406699916#0 406699916#1 406699916#2 -50436991#0 -326403705#5 -326403705#4 -326403705#2 -326403705#1 704941093 704941092#5 704941092#6 704941092#7 704941091 -704941095#5 -704941095#4 -704941095#3 -704941095#2 -704941095#1 -704941095#0 685713750 685713754#1 685713754#2 685713754#3 685713746 -685713755#3 -685713755#2 154658095"/>
    </vehicle>
    <vehicle id="14" depart="14.00">
        <route edges="50436368#5 50436370#0 50436370#1 406699900 -50435962#1 -50435962#0 688243864 687144785#5 687144785#6 687144785#7 687144785#0 687144785#1 687144770 -687144768#1 -687144768#0 154658099#0 154658099#1 687238550 688199698 688169646 688169645 688169644#0 687375092#1 687375092#2 -687379640#1 -687379640#0 687381554#0 687381552 -154286292#4 -154286292#3 -154286292#2 -404251430#9 -404251430#8 404251433#0 404251433#2"/>
    </vehicle>
    <vehicle id="15" depart="15.00">
        <route edges="153914899#14 699951281#1 699951280#0 699951280#1 699951285#2 699951285#3-AddedOnRampEdge 699951285#3 699951285#4 699951285#5 699951285#6 688412992 688183264#0 688183264#1 688183264#2 688171462#1 688171462#2 687376010#0 687376010#1 687376010#2 687376010#3 687376010#4 154658098#4 154658098#5 154658079 154658071#0 154658071#1 154658071#2 154658071#3 154658071#4 154658071#5 687212926 687212930#3 687212930#4 687212915 687212931#0 687212931#2 687212931#3 687212931#4 708823488 708823492#1 708823492#2 708823492#3 708823492#4 708823492#5 708823487 706925663#0 706925663#1 706925663#2 706925663#3"/>
    </vehicle>
    <vehicle id="16" depart="16.00">
        <route edges="-683284825 50436373#6 -50435962#0 688243864 687144785#5 687144785#6 687144785#7 687144785#0 687144785#1 687144770 -687144768#1 -687144768#0 154658099#0 154658099#1 687238550 688199698 688169646 688169645 688169644#0 687375092#1 687375092#2 -687379640#1 -687379640#0 687381554#0 687381554#1 687381554#2 -154286221#2 -154286221#0 154286245 -723881190#1 154286277"/>
    </vehicle>
    <vehicle id="17" depart="17.00">
        <route edges="674382481#3 674259695 688183264#2 688171462#1 688171462#2 687376010#0 687376010#1 687376010#2 687376010#3 687376010#4 154658098#4 154658098#5 154658079 154658071#0 154658071#1 154658071#2 154658071#3 154658071#4"/>
    </vehicle>
    <vehicle id="18" depart="18.00">
        <route edges="154836590 154836641#5 154836585 154836640#0 154836640#2 154836640#3 154836640#4 -138553884#3 -138553884#2 -138553884#1 154836581#0 154836581#1 673225414#0 673225414#1 673225414#3 673225414#4 -154826691#0 688412994#2 688170736#0 687616071#1 687616071#2 -154266724#2 -154266724#1"/>
    </vehicle>
    <vehicle id="19" depart="19.00">
        <route edges="-154836604#0 154836588 154836641#1 154836641#2 154836641#3 154836599 154836636#0 154836636#1 154836636#2 154836636#3 154836636#4 154836616 149867946#2-AddedOnRampEdge 149867946#2 149867946#3 688224552#0 688224553#1 688224553#2 688224553#2-AddedOffRampEdge 688224553#3 688224553#4-AddedOnRampEdge 688224553#4 688224553#4-AddedOffRampEdge 149867911#0 149867911#1 149867911#2 149867911#3 684673565#0 404196643 149867921#1 149867921#2 688224384#1-AddedOnRampEdge 688224384#1 688224384#1-AddedOffRampEdge 724088109 -138553877#7 -138553877#6 -154266732#2 673225423#0 673225421#0 -673225422"/>
    </vehicle>
    <vehicle id="20" depart="20.00">
        <route edges="-154266733#1 154266693#0 154266693#1 -154266721 149867921#2 688224384#1-AddedOnRampEdge 688224384#1 688224384#1-AddedOffRampEdge 688224384#2 688224384#3 688224384#4 688224380#0 688224380#1 688224380#2 149867950#1 149867950#2 149867950#3 149867950#4 149867950#5 149867950#6 149867950#7 699951284 699951281#0 699951281#1 699951280#0 699951280#1 699951285#2 699951285#3-AddedOnRampEdge 699951285#3 699951285#4 699951285#5 699951285#6 688412992 688183264#0 688183264#1 688183264#2 688171462#1 688171462#2 672153002#2 672153002#3 672153002#4 672153002#5 672153002#6 687238551 687238552#1-AddedOnRampEdge 687238552#1 687238552#2 687238552#3 149966717#0 149966717#1 149966717#2 149966717#3 150892439 150892443#1 150892443#2 150892443#3 150892443#3-AddedOffRampEdge 50436902#0 50436902#1 -406699908"/>
    </vehicle>
    <vehicle id="21" depart="21.00">
        <route edges="-154272148#0 -154272148#1 -154272014 699951285#6 688412992 688183264#0 688183264#1 688183264#2 688171462#1 688171462#2 672153002#2 672153002#3 672153002#4 672153002#5 672153002#6 687238551 687238552#1-AddedOnRampEdge 687238552#1 687238552#2 687238552#3 149966717#0 149966717#1 149966717#2 149966717#3 149966717#4 40117792#3 40117792#4 40117792#5 40117792#6 684204231 150892442#0 150892442#1 150892442#2 689012494#0 689012494#1 149966685#0 154583858 154583778#0 -154583844 -672153018"/>
    </vehicle>
    <vehicle id="22" depart="22.00">
        <route edges="154658070#1 -704941096 704945553 704941092#7 704941092#8 704941092#1 704941092#2 704941092#3 704941094#0 704941094#1 326403705#1 326403705#2 326403705#4 326403705#5 326403705#6 50436990 688169646 688169645 688169644#0 688169643#0 688169643#1-AddedOnRampEdge 688169643#1 688170737#0 688170737#1 688170737#2 688412994#0 688412994#1-AddedOnRampEdge 688412994#1 688412994#2 688170736#0 699951283#0 699951283#1 699951283#2 699951282 149867946#0 149867946#1 149867946#2-AddedOnRampEdge 149867946#2 149867946#3 688224552#0 688224553#1 688224553#2 688224553#2-AddedOffRampEdge 688224553#3 688224553#4-AddedOnRampEdge 688224553#4 688224553#4-AddedOffRampEdge 149867911#0 149867911#1 149867911#2 149867911#3 684673565#0 404196643 149867921#1 149867921#2 688224384#1-AddedOnRampEdge 688224384#1 688224384#1-AddedOffRampEdge 724088109 -138553877#7 -138553877#6 138553877#6"/>
    </vehicle>
    <vehicle id="23" depart="23.00">
        <route edges="-674382481#1 -674382481#0 674382481#0 674382481#1 -154286264 688171462#1 688171462#2 688169643#0 688169643#1-AddedOnRampEdge 688169643#1 688170737#0 688170737#1 688170737#2 688412994#0 688412994#1-AddedOnRampEdge 688412994#1 688412994#2 688170736#0 699951283#0 699951283#1 699951283#2 699951282 149867946#0 149867946#1 149867946#2-AddedOnRampEdge 149867946#2 149867946#3 688224552#0 688224553#1 688224553#2 688224553#2-AddedOffRampEdge 688224553#3 688224553#4-AddedOnRampEdge 688224553#4 688224553#4-AddedOffRampEdge 149867911#0 149867911#1 149867911#2 149867911#3 684673565#0 404196643 149867921#1 149867921#2 688224384#1-AddedOnRampEdge 688224384#1 688224384#1-AddedOffRampEdge 724088109 -138553877#7 -138553877#6 -138553877#5 -138553877#4 -138553877#3 -683135619 -154266736#2 -154266736#1 -674404987 -404242638#1"/>
    </vehicle>
    <vehicle id="24" depart="24.00">
        <route edges="-404123053#1 -404123053#0 -154826771#0 -154826776#5 -154826776#4 -154826776#3 -154826776#2 -154826776#1 -154826776#0 154826689#3 154826689#4 154826706 688412994#1-AddedOnRampEdge 688412994#1 688412994#2 688170736#0 699951283#0 699951283#1 699951283#2 699951282 149867946#0 149867946#1 149867946#2-AddedOnRampEdge 149867946#2 149867946#3 688224552#0 688224553#1 688224553#2 688224553#2-AddedOffRampEdge 724399138 688207463#0 688207463#2 688207461#0 688207461#1 688207461#2 688207461#3 688207462#1 688207462#2"/>
    </vehicle>
    <vehicle id="25" depart="25.00">
        <route edges="154658097#0 154658097#1 406699920#0 406699920#1 406699920#2 406699920#3 687212930#4 687212915 687212931#0 687212931#2 687212931#3 687212931#4 708823488 708823492#1 708823492#2 708823492#3 708823490 154790274#0 154790274#1"/>
    </vehicle>
    <vehicle id="26" depart="26.00">
        <route edges="-154658095 685713755#2 685713755#3 685713747 685713754#5 685713754#6 685713754#7 685713751 704941095#0 704941095#1 704941095#2 704941095#3 704941095#4 704941095#5 704941090 704941092#1 704941092#2 704941092#3 704941094#0 704941094#1 326403705#1 326403705#2 326403705#4 326403705#5 326403705#6 50436990 688169646 688169645 688169644#0 687375092#1 687375092#2 -687379640#1 -687379640#0 687381554#0 687381552 -154286292#4 -154286292#3 -154286292#2 -404251430#9 -404251430#8 -154286282 404251432#4"/>
    </vehicle>
    <vehicle id="27" depart="27.00">
        <route edges="-154658088 154658097#3 -154658071#3 -154658071#2 -154658071#1 -154658071#0 154658085 154658098#0 154658098#1 154658098#2 50437161#0 50437161#1 50437161#2 50437158 688169643#1-AddedOnRampEdge 688169643#1 688170737#0 688170737#1 688170737#2 688412994#0 688412994#1-AddedOnRampEdge 688412994#1 688412994#2 688170736#0 699951283#0 699951283#1 699951283#2 699951282 149867946#0 149867946#1 149867946#2-AddedOnRampEdge 149867946#2 149867946#3 688224552#0 688224553#1 688224553#2 688224553#2-AddedOffRampEdge 688224553#3 688224553#4-AddedOnRampEdge 688224553#4 688224553#4-AddedOffRampEdge 149867911#0 149867911#1 149867911#2 149867911#3 684673565#0 684673565#1 149867780#7 149867780#8 149867780#1 149867780#2 149867780#3 149867908#0 149867908#1 149867908#2 149867908#3-AddedOnRampEdge 149867908#3 149813586#1 149813586#2 149813586#3 149813586#4 149813586#5"/>
    </vehicle>
    <vehicle id="28" depart="28.00">
        <route edges="723881190#1 -723881190#1 -723881190#0 154286215#5 687187278#2 154286221#0 154286221#2 687381551#0 687381551#1 687379640#0 687379640#1 687377254 412441780#1 687376010#0 687376010#1 687376010#2 687376010#3 687376010#4 154658098#4 154658098#5 154658098#6 154658098#0 154658087#0 687415472 687415471#0 687415471#1 687415471#2 687415471#3 687415471#4 688415230#0 688415230#2 688415230#3 688415230#4 -154826776#5 -154826776#4 -154826776#3 154826762#0"/>
    </vehicle>
    <vehicle id="29" depart="29.00">
        <route edges="154266693#2 674404986#1 674404986#2 674404992 153915075#5 153915075#6 149813589#2-AddedOnRampEdge 149813589#2 149813589#3 684662842#1 684673566#0 684673566#0-AddedOffRampEdge 684653259 -684653258#1 -684653258#0 154939978#1 -154940107#7 -154940107#6 -154940107#5 -154940107#4 -154940107#3 -154940107#2 -154940107#1 -154940107#0 688205686#0 688205686#1 688241729 688207461#2 688207461#3 688207462#1 -154939969#5 -154939969#4 -154939969#3 -154939969#2 154940058#2 154939995"/>
    </vehicle>
    <vehicle id="30" depart="30.00">
        <route edges="673225418#1 -666802011 -688207463#0 724399137 688224553#4-AddedOnRampEdge 688224553#4 688224553#4-AddedOffRampEdge 149867911#0 149867911#1 149867911#2 149867911#3 684673565#0 404196643 149867921#1 149867921#2 688224384#1-AddedOnRampEdge 688224384#1 688224384#1-AddedOffRampEdge 688224384#2 688224384#3 688224384#4 688224380#0 688224380#1 688224380#2 149867950#1 149867950#2 149867950#3 149867950#4 149867950#5 149867950#6 149867950#7 699951284 699951281#0 699951281#1 699951280#0 699951280#1 699951285#2 699951285#3-AddedOnRampEdge 699951285#3 699951285#4 699951285#5 699951285#6 688412992 688183264#0 688183264#1 688183264#2 688171462#1 688171462#2 672153002#2 672153002#3 672153002#4 672153002#5 672153002#6 687238551 687238552#1-AddedOnRampEdge 687238552#1 687238552#2 687238552#3 149966717#0 149966717#1 149966717#2 149966717#3 150892439 150892443#1 150892443#2 150892443#3 150892443#3-AddedOffRampEdge 50436902#0 50436902#1 687144768#0 687144768#1 687144766 687144785#3 688243865 50435962#0 -50436373#6 -50436373#5 -50436373#4 -50436373#3 50436373#3"/>
    </vehicle>
    <vehicle id="31" depart="31.00">
        <route edges="-154836604#1 -154836604#0 154836588 154836641#1 154836641#2 154836641#3 154836599 154836636#0 154836636#1 154836636#2 154836636#3 154836636#4 154836616 149867946#2-AddedOnRampEdge 149867946#2 149867946#3 688224552#0 688224553#1 688224553#2 688224553#2-AddedOffRampEdge 688224553#3 688224553#4-AddedOnRampEdge 688224553#4 688224553#4-AddedOffRampEdge 149867911#0 149867911#1 149867911#2 149867911#3 684673565#0 404196643 149867921#1 149867921#2 688224384#1-AddedOnRampEdge 688224384#1 688224384#1-AddedOffRampEdge 724088109 -138553877#7 -138553877#6 -138553877#5 -138553877#4 154266725#0 154266704#0 -154266704#0"/>
    </vehicle>
    <vehicle id="32" depart="32.00">
        <route edges="-406703695 674363587 154836640#2 154836640#3 154836640#4 -138553884#3 -138553884#2 -138553884#1 154836581#0 154836581#1 673225414#0 673225414#1 673225414#3 673225414#4 -154826691#0 688412994#2 688170736#0 699951285#2 699951285#3-AddedOnRampEdge 699951285#3 699951285#4 699951285#5 699951285#6 688412992 688183264#0 688183264#1 688183264#2 688171462#1 688171462#2 687376010#0 687376010#1 688199692 406699916#0 154658097#0 154658097#1 406699920#0 406699920#1 -50436991#4"/>
    </vehicle>
    <vehicle id="33" depart="33.00">
        <route edges="-154826766#1 -154826766#0 688199688#2 688199688#3 688170737#0 688170737#1 688170737#2 688412994#0 688412994#1-AddedOnRampEdge 688412994#1 688412994#2 688170736#0 699951283#0 699951283#1 699951283#2 699951282 149867946#0 149867946#1 149867946#2-AddedOnRampEdge 149867946#2 149867946#3 688224552#0 688224553#1"/>
    </vehicle>
    <vehicle id="34" depart="34.00">
        <route edges="154790271#0 154790271#1 154790271#2 -138366884#1 708823491 708823492#5 708823492#6 708823492#7 708823492#8 708823492#1 704945552 704945551#0 708823484 704941094#1 326403705#1 326403705#2 326403705#4 326403705#5 326403705#6 50436990 688169646 688169645 688169644#0 688169643#0 688169643#1-AddedOnRampEdge 688169643#1 688170737#0 688170737#1 688170737#2 688412994#0 688412994#1-AddedOnRampEdge 688412994#1 688412994#2 688170736#0 699951283#0 699951283#1 699951283#2 699951282 149867946#0 149867946#1 149867946#2-AddedOnRampEdge 149867946#2 149867946#3 688224552#0 688224553#1 688224553#2 688224553#2-AddedOffRampEdge 688224553#3 688224553#4-AddedOnRampEdge 688224553#4 688224553#4-AddedOffRampEdge 149867911#0 149867911#1 149867911#2 149867911#3 684673565#0 684673565#1 149867780#7 149867780#8 149867780#1 149867780#2 149867780#3 149867908#0 149867908#1"/>
    </vehicle>
    <vehicle id="35" depart="35.00">
        <route edges="687379640#1 687377254 412441780#1 688169643#0 688169643#1-AddedOnRampEdge 688169643#1 688170737#0 688170737#1 688170737#2 688412994#0 688412994#1-AddedOnRampEdge 688412994#1 688412994#2 688170736#0 687616071#1 687616071#2 -154266724#2 -154266724#1 154266731 154266706#0 154266706#1 688205567#1 -154266723#0 153914899#9 153914899#10 153914899#11 153914899#12 -154266720#3 -154266720#1 -154266720#0 -154266691#0 154266691#0"/>
    </vehicle>
    <vehicle id="36" depart="36.00">
        <route edges="-394585502#4 -687163945#0 674256136#3 674256136#3-AddedOffRampEdge 684677986 684677984#1 687238550 688199698 688169646 688169645 688169644#0 688169643#0 688169643#1-AddedOnRampEdge 688169643#1 688170737#0 688170737#1 688170737#2 688412994#0 688412994#1-AddedOnRampEdge 688412994#1 688412994#2 688170736#0 699951283#0 699951283#1 699951283#2 154836637 673225441 406703709#0 -154836595 -154836640#3 -406703694#1 -406703694#0"/>
    </vehicle>
    <vehicle id="37" depart="37.00">
        <route edges="154266698#0 154266698#2 688190869#0 688190869#1 -797783923#4 -797783923#3 -797783923#2 -797783923#1 149867950#6 149867950#7 699951284 699951281#0 699951281#1 699951280#0 699951280#1 699951285#2 699951285#3-AddedOnRampEdge 699951285#3 699951285#4 699951285#5 699951285#6 688412992 688183264#0 688183264#1 688183264#2 688171462#1 688171462#2 672153002#2 672153002#3 672153002#4 672153002#5 672153002#6 687238551 687238552#1-AddedOnRampEdge 687238552#1 687238552#2 687238552#3 149966717#0 149966717#1 149966717#2 149966717#3 150892439 150892443#1 150892443#2 150892443#3 150892443#3-AddedOffRampEdge 50436902#0 -50436368#10 -50436373#8 -50436370#2 -406699904#1 -50436371"/>
    </vehicle>
    <vehicle id="38" depart="38.00">
        <route edges="154266730#1 154266730#2 154266730#3 674404989#0 674404989#1 674404989#2 674404989#3 138553877#5 138553877#6 138553877#7 724088110 688224384#3 688224384#4 688224380#0 688224380#1 688224380#2 149867950#1 149867950#2 149867950#3 149867950#4 149867950#5 149867950#6 149867950#7 699951284 699951281#0 699951281#1 699951280#0 699951280#1 699951285#2 699951285#3-AddedOnRampEdge 699951285#3 699951285#4 699951285#5 699951285#6 688412992 688183264#0 688183264#1 688183264#2 688171462#1 688171462#2 687376010#0 687376010#1 687376010#2 687376010#3 687376010#4 154658098#4 154658098#5 154658098#6 154658098#0 154658087#0 687415472"/>
    </vehicle>
    <vehicle id="39" depart="39.00">
        <route edges="-687163945#1 -687163945#0 674256136#3 674256136#3-AddedOffRampEdge 684677986 684677984#1 687238550 688199698 688169646 688169645 688169644#0 687375092#1 687375092#2 -687379640#1 -687379640#0 687381554#0 687381552 -154286292#4 -154286292#3 -154286292#2 -404251430#9 404251432#0 404251432#1 -404251432#1"/>
    </vehicle>
    <vehicle id="40" depart="40.00">
        <route edges="794638294 -706925663#0 708823486 708823492#7 708823492#8 708823492#1 704945552 704945551#0 708823484 704941094#1 326403705#1 326403705#2 326403705#4 326403705#5 326403705#6 50436990 688169646 688169645 688169644#0 688169643#0 688169643#1-AddedOnRampEdge 688169643#1 688170737#0 688170737#1 688170737#2 688412994#0 688412994#1-AddedOnRampEdge 688412994#1 688412994#2 688170736#0 687616071#1 687616071#2 -154266724#2 -154266724#1 154266731 154266706#0 154266706#1 688205567#1 -154266723#0 -153914899#7 -153914899#6 -153914899#5 -153914899#4 -153914899#3 -153914899#2 -404242624#0 -154266741 154266741"/>
    </vehicle>
    <vehicle id="41" depart="41.00">
        <route edges="-154272009#1 -154272084 -138553887#2 -138553887#1 -138553887#0 -686733960#1 -686733960#0 706693473 688205564#1 688205564#2 688205564#3 407586500#0 407586500#1 674389313 -153914975#1 -153914975#0 153914970 153915076#7 153914959 153914899#0 153914899#1 153914899#2 -404242633#1 -404242633#0 -154266725#6 -154266725#5 -154266725#4 -154266725#3 -154266725#2"/>
    </vehicle>
    <vehicle id="42" depart="42.00">
        <route edges="-154286239 -154286261#0 -687604976#1 -687604976#0 154272024 688183264#0 688183264#1 688183264#2 688171462#1 688171462#2 687376010#0 687376010#1 687376010#2 687376010#3 687376010#4 154658098#4 154658098#5 154658079 154658071#0 154658071#1 154658071#2 154658071#3 154658071#4 154826765#0 154826704"/>
    </vehicle>
    <vehicle id="43" depart="43.00">
        <route edges="406703694#0 -30183037 -154836644#1 -30183036#3 -30183036#2 -154826691#3 -154826691#2 -154826691#1 -154826691#0 688412994#2 688170736#0 699951285#2 699951285#3-AddedOnRampEdge 699951285#3 699951285#4 699951285#5 699951285#6 688412992 688183264#0 688183264#1 688183264#2 688171462#1 688171462#2 672153002#2 672153002#3 672153002#4 672153002#5 672153002#6 687238551 687238552#1-AddedOnRampEdge 687238552#1 687238552#2 687238552#3 149966717#0 687407180 687407177#7 687407177#0 687407177#1 687409197 58326199#1 58326199#2 58326199#3 150892432#0 150892432#2"/>
    </vehicle>
    <vehicle id="44" depart="44.00">
        <route edges="-154266712#1 -154266712#0 149867950#4 149867950#5 149867950#6 149867950#7 699951284 699951281#0 699951281#1 699951280#0 699951280#1 699951283#0 699951283#1 699951283#2 699951282 149867946#0 149867946#1 149867946#2-AddedOnRampEdge 149867946#2 149867946#3 688224552#0 688224553#1 688224553#2 688224553#2-AddedOffRampEdge 688224553#3 688224553#4-AddedOnRampEdge 688224553#4 688224553#4-AddedOffRampEdge 149867911#0 149867911#1 149867911#2 149867911#3 684673565#0 684673565#1 149867780#7 149867780#8 149867780#1 149867780#2 149867780#3 149867908#0 149867908#1 149867908#2 149867908#3-AddedOnRampEdge 149867908#3 149813586#1 149813586#2 149813586#3 149813586#4 149813586#5"/>
    </vehicle>
    <vehicle id="45" depart="45.00">
        <route edges="794638294 -706925663#0 708823486 708823492#7 708823492#8 708823492#1 704945552 704945551#0 708823484 704941094#1 326403705#1 326403705#2 326403705#4 326403705#5 326403705#6 50436990 688169646 688169645 688169644#0 688169643#0 688169643#1-AddedOnRampEdge 688169643#1 688170737#0 688170737#1 688170737#2 688412994#0 688412994#1-AddedOnRampEdge 688412994#1 688412994#2 688170736#0 699951285#2 699951285#3-AddedOnRampEdge 699951285#3 699951285#4 699951285#5 154272014 154272148#1 154272148#2"/>
    </vehicle>
    <vehicle id="46" depart="46.00">
        <route edges="689012493 149966685#0 154583858 154583778#0 154583778#1 154583778#2 687164921 687164922#2 687164918 672153017#0 672153017#1 672153017#2 150892446#1 150892446#2 150892446#3 150892446#4 684204231 40117792#0 40117792#1 150892443#0 150892443#1 150892443#2 150892443#3 150892443#3-AddedOffRampEdge 150892443#4 684677984#1 687238550 688199698 688169646 688169645 688169644#0 688169643#0 688169643#1-AddedOnRampEdge 688169643#1 688170737#0 688170737#1 688170737#2 688412994#0 688412994#1-AddedOnRampEdge 688412994#1 688412994#2 688170736#0 687616071#1 687616071#2 687616071#3 687616071#4 138553869#1 138553869#2 688205564#3 688205564#4 688205564#5 688205564#6 706693474 686733960#0 686733960#1 686733960#2 686733960#3"/>
    </vehicle>
    <vehicle id="47" depart="47.00">
        <route edges="-138553877#2 154266728#0 154266728#1 154266728#2 154266728#3 688193022#0 154266698#2 688190869#0 688190869#1 154266692#1 154266692#2 404242624#0 404242624#1 404242624#2 404244432#2"/>
    </vehicle>
    <vehicle id="48" depart="48.00">
        <route edges="154826732 674259694 688415230#3 688415230#4 -154826776#5 -154826776#4 -154826776#3 -154826776#2 -154826776#1 -154826776#0 154826689#3 154826689#4 154826706 688412994#1-AddedOnRampEdge 688412994#1 688412994#2 688170736#0 699951285#2 699951285#3-AddedOnRampEdge 699951285#3 699951285#4 699951285#5 699951285#6 154272039 687604976#0 687604976#1 154286261#0 154286239"/>
    </vehicle>
    <vehicle id="49" depart="49.00">
        <route edges="-404123053#1 -404123053#0 -154826771#0 -154826776#5 -154826722 154826762#1"/>
    </vehicle>
    <vehicle id="50" depart="50.00">